Circuit: *

Ignoring BSIM parameter XL
Ignoring BSIM parameter XW
Ignoring BSIM parameter XL
Ignoring BSIM parameter XW
Warning: Pd = 0 is less than W.
Warning: Ps = 0 is less than W.
Warning: Pd = 0 is less than W.
Warning: Ps = 0 is less than W.
Direct Newton iteration for .op point succeeded.

tf=1.99688e-09 FROM 1.22368e-08 TO 1.42337e-08
tr=1.88262e-09 FROM 5.72326e-08 TO 5.91152e-08


Date: Sun Jun 23 23:46:25 2024
Total elapsed time: 0.097 seconds.

tnom = 27
temp = 27
method = modified trap
totiter = 2133
traniter = 2127
tranpoints = 1056
accept = 1055
rejected = 1
matrix size = 5
fillins = 0
solver = Normal
Avg thread counts: 3.8/6.6/6.6/3.8
Matrix Compiler1:       8 opcodes  0.1/[0.0]/0.1
Matrix Compiler2:      28 opcodes  0.1/[0.0]/0.1

