LTspice 24.0.12 for Windows
Circuit: *
Start Time: Sat Jun 22 20:57:37 2024
Ignoring BSIM parameter XL
Ignoring BSIM parameter XW
Ignoring BSIM parameter XL
Ignoring BSIM parameter XW
solver = Normal
Maximum thread count: 16
tnom = 27
temp = 27
method = modified trap
Direct Newton iteration for .op point succeeded.

tf=2.75173e-09 FROM 1.27835e-08 TO 1.55352e-08
tr=2.49697e-09 FROM 5.62124e-08 TO 5.87094e-08

Total elapsed time: 0.148 seconds.

