LTspice 24.0.12 for Windows
Circuit: *
Start Time: Sat Jun 22 23:25:46 2024
Ignoring BSIM parameter XL
Ignoring BSIM parameter XW
Ignoring BSIM parameter XL
Ignoring BSIM parameter XW
solver = Normal
Maximum thread count: 16
tnom = 27
temp = 27
method = modified trap
Direct Newton iteration for .op point succeeded.

tf=2.64289e-09 FROM 1.40542e-08 TO 1.66971e-08
tr=2.66748e-09 FROM 5.45252e-08 TO 5.71927e-08

Total elapsed time: 0.130 seconds.

