LTspice 24.0.12 for Windows
Circuit: *
Start Time: Sat Jun 22 21:32:58 2024
Ignoring BSIM parameter XL
Ignoring BSIM parameter XW
Ignoring BSIM parameter XL
Ignoring BSIM parameter XW
solver = Normal
Maximum thread count: 16
tnom = 27
temp = 27
method = modified trap
Warning: Pd = 0 is less than W.
Warning: Ps = 0 is less than W.
Warning: Pd = 0 is less than W.
Warning: Ps = 0 is less than W.
Direct Newton iteration for .op point succeeded.

tf=2.63985e-09 FROM 1.40409e-08 TO 1.66808e-08
tr=2.65949e-09 FROM 5.45077e-08 TO 5.71672e-08

Total elapsed time: 0.187 seconds.

