Circuit: *

Ignoring BSIM parameter XL
Ignoring BSIM parameter XW
Ignoring BSIM parameter XL
Ignoring BSIM parameter XW
Direct Newton iteration for .op point succeeded.

tf=1.00196e-09 FROM 1.16102e-08 TO 1.26121e-08
tr=1.97557e-09 FROM 1.36214e-07 TO 1.3819e-07


Date: Sun Jun 23 22:54:20 2024
Total elapsed time: 0.125 seconds.

tnom = 27
temp = 27
method = modified trap
totiter = 2380
traniter = 2372
tranpoints = 1087
accept = 1081
rejected = 6
matrix size = 8
fillins = 0
solver = Normal
Avg thread counts: 3.5/6.4/6.4/3.5
Matrix Compiler1:      19 opcodes  0.2/[0.2]/0.3
Matrix Compiler2: off  [0.1]/0.2/0.2

